Version 4.1
SHEET 1 3332 1732
WIRE 880 -1024 736 -1024
WIRE 736 -992 736 -1024
WIRE 880 -992 880 -1024
WIRE 880 -864 880 -912
WIRE 736 -848 736 -912
WIRE 1808 -704 1712 -704
WIRE 1936 -704 1888 -704
WIRE 2144 -704 2016 -704
WIRE 2272 -704 2144 -704
WIRE 2400 -704 2400 -800
WIRE 2400 -704 2272 -704
WIRE 2592 -704 2400 -704
WIRE 560 -688 464 -688
WIRE 784 -688 640 -688
WIRE 896 -688 864 -688
WIRE 1104 -688 1104 -800
WIRE 1104 -688 896 -688
WIRE 1344 -688 1104 -688
WIRE 2144 -672 2144 -704
WIRE 2272 -672 2272 -704
WIRE 896 -656 896 -688
WIRE 1712 -640 1712 -704
WIRE 464 -624 464 -688
WIRE 2144 -560 2144 -592
WIRE 2272 -560 2272 -592
WIRE 896 -544 896 -576
WIRE 2592 -544 2592 -704
WIRE 1344 -528 1344 -688
WIRE 2144 -432 2144 -496
WIRE 2272 -432 2272 -496
WIRE 896 -416 896 -480
WIRE 2592 -400 2592 -464
WIRE 1344 -384 1344 -448
WIRE 976 240 912 240
WIRE 1104 240 1056 240
WIRE 1264 240 1264 176
WIRE 1264 240 1184 240
WIRE 1840 240 1776 240
WIRE 1968 240 1920 240
WIRE 2128 240 2048 240
WIRE 2224 240 2224 160
WIRE 2224 240 2128 240
WIRE 2288 240 2224 240
WIRE 2288 256 2288 240
WIRE 1264 272 1264 240
WIRE 2128 272 2128 240
WIRE 912 352 912 240
WIRE 1776 352 1776 240
WIRE 2288 368 2288 336
WIRE 1264 384 1264 352
WIRE 2128 384 2128 352
WIRE 912 496 912 432
WIRE 1776 496 1776 432
WIRE 2288 496 2288 432
WIRE 1264 512 1264 448
WIRE 2128 512 2128 448
WIRE 1824 1360 1760 1360
WIRE 1952 1360 1904 1360
WIRE 2112 1360 2032 1360
WIRE 2272 1360 2112 1360
WIRE 2464 1360 2272 1360
WIRE 2272 1376 2272 1360
WIRE 2112 1392 2112 1360
WIRE 1760 1408 1760 1360
WIRE 2464 1472 2464 1360
WIRE 2272 1488 2272 1456
WIRE 1760 1504 1760 1488
WIRE 2112 1504 2112 1472
WIRE 2272 1616 2272 1552
WIRE 2464 1616 2464 1552
WIRE 1760 1632 1760 1568
WIRE 2112 1632 2112 1568
FLAG 2144 -432 0
FLAG 2592 -400 0
FLAG 1712 -640 0
FLAG 1264 512 0
FLAG 912 496 0
FLAG 2272 -432 0
FLAG 896 -416 0
FLAG 1344 -384 0
FLAG 464 -624 0
FLAG 1104 -800 1
FLAG 2400 -800 2
FLAG 2128 512 0
FLAG 1776 496 0
FLAG 2288 496 0
FLAG 880 -864 0
FLAG 736 -848 0
FLAG 2112 1632 0
FLAG 2464 1616 0
FLAG 2272 1616 0
FLAG 1760 1632 0
FLAG 1264 176 o1
FLAG 2224 160 o2
SYMBOL cap 2128 -560 R0
SYMATTR InstName C1
SYMATTR Value {C}
SYMATTR SpiceLine Lser=200p
SYMBOL current 2592 -464 R180
WINDOW 0 24 80 Left 2
WINDOW 3 24 0 Left 2
WINDOW 123 24 -24 Left 2
WINDOW 39 0 0 Left 0
SYMATTR InstName I1
SYMATTR Value ""
SYMATTR Value2 AC 1
SYMBOL ind 1792 -688 R270
WINDOW 0 32 56 VTop 2
WINDOW 3 5 56 VBottom 2
SYMATTR InstName L1
SYMATTR Value {L}
SYMATTR SpiceLine Rser=0
SYMBOL cap 1248 384 R0
SYMATTR InstName C2
SYMATTR Value {C}
SYMATTR SpiceLine Rser=0.01 Lser=200p
SYMBOL ind 960 256 R270
WINDOW 0 32 56 VTop 2
WINDOW 3 5 56 VBottom 2
SYMATTR InstName L2
SYMATTR Value {L}
SYMATTR SpiceLine Rser=0
SYMBOL voltage 912 336 R0
WINDOW 123 24 120 Left 2
WINDOW 39 0 0 Left 0
SYMATTR Value2 AC 1
SYMATTR InstName V1
SYMATTR Value ""
SYMBOL res 2128 -688 R0
SYMATTR InstName R3
SYMATTR Value 0.01
SYMBOL res 1248 256 R0
SYMATTR InstName R4
SYMATTR Value 0.01
SYMBOL res 2256 -688 R0
SYMATTR InstName R1
SYMATTR Value {Rd}
SYMBOL cap 880 -544 R0
SYMATTR InstName C4
SYMATTR Value {C}
SYMATTR SpiceLine Lser=200p
SYMBOL current 1344 -448 R180
WINDOW 0 24 80 Left 2
WINDOW 3 24 0 Left 2
WINDOW 123 24 -24 Left 2
WINDOW 39 0 0 Left 0
SYMATTR InstName I2
SYMATTR Value ""
SYMATTR Value2 AC 1
SYMBOL ind 544 -672 R270
WINDOW 0 32 56 VTop 2
WINDOW 3 5 56 VBottom 2
SYMATTR InstName L3
SYMATTR Value {L}
SYMATTR SpiceLine Rser=0
SYMBOL res 880 -672 R0
SYMATTR InstName R6
SYMATTR Value 0.01
SYMBOL res 880 -704 R90
WINDOW 0 0 56 VBottom 2
WINDOW 3 32 56 VTop 2
SYMATTR InstName R7
SYMATTR Value {RL}
SYMBOL cap 2112 384 R0
SYMATTR InstName C5
SYMATTR Value {C}
SYMATTR SpiceLine Rser=0.01 Lser=200p
SYMBOL ind 1824 256 R270
WINDOW 0 32 56 VTop 2
WINDOW 3 5 56 VBottom 2
SYMATTR InstName L4
SYMATTR Value {L}
SYMATTR SpiceLine Rser=0
SYMBOL voltage 1776 336 R0
WINDOW 123 24 120 Left 2
WINDOW 39 0 0 Left 0
SYMATTR Value2 AC 1
SYMATTR InstName V2
SYMATTR Value ""
SYMBOL res 2112 256 R0
SYMATTR InstName R9
SYMATTR Value 0.01
SYMBOL res 2272 240 R0
SYMATTR InstName R10
SYMATTR Value {Rd}
SYMBOL cap 2272 368 R0
SYMATTR InstName C6
SYMATTR Value {Cd}
SYMATTR SpiceLine Lser=200p
SYMBOL res 1200 224 R90
WINDOW 0 -13 48 VBottom 2
WINDOW 3 32 56 VTop 2
SYMATTR InstName R11
SYMATTR Value {RL}
SYMBOL res 2032 -720 R90
WINDOW 0 -13 48 VBottom 2
WINDOW 3 32 56 VTop 2
SYMATTR InstName R2
SYMATTR Value {RL}
SYMBOL res 2064 224 R90
WINDOW 0 -13 48 VBottom 2
WINDOW 3 32 56 VTop 2
SYMATTR InstName R5
SYMATTR Value {RL}
SYMBOL res 720 -1008 R0
SYMATTR InstName R8
SYMATTR Value 8
SYMBOL current 880 -912 R180
WINDOW 0 24 80 Left 2
WINDOW 3 24 0 Left 2
WINDOW 123 24 -24 Left 2
WINDOW 39 0 0 Left 0
SYMATTR InstName I3
SYMATTR Value ""
SYMATTR Value2 AC 1
SYMBOL cap 2256 -560 R0
SYMATTR InstName C8
SYMATTR Value {Cd}
SYMATTR SpiceLine Lser=200p
SYMBOL cap 2096 1504 R0
SYMATTR InstName C3
SYMATTR Value {C}
SYMATTR SpiceLine Rser=0.01 Lser=200p
SYMBOL ind 1808 1376 R270
WINDOW 0 32 56 VTop 2
WINDOW 3 5 56 VBottom 2
SYMATTR InstName L6
SYMATTR Value {L}
SYMATTR SpiceLine Rser=0
SYMBOL voltage 2464 1456 R0
WINDOW 123 24 120 Left 2
WINDOW 39 0 0 Left 0
SYMATTR Value2 AC 1
SYMATTR InstName V4
SYMATTR Value ""
SYMBOL res 2096 1376 R0
SYMATTR InstName R13
SYMATTR Value 0.01
SYMBOL res 2256 1360 R0
SYMATTR InstName R15
SYMATTR Value 0.5
SYMBOL cap 2256 1488 R0
SYMATTR InstName C9
SYMATTR Value {Cd}
SYMATTR SpiceLine Lser=200p
SYMBOL res 2048 1344 R90
WINDOW 0 -13 48 VBottom 2
WINDOW 3 32 56 VTop 2
SYMATTR InstName R16
SYMATTR Value {RL}
SYMBOL cap 1744 1504 R0
SYMATTR InstName C10
SYMATTR Value {C}
SYMATTR SpiceLine Rser=0.01 Lser=200p
SYMBOL res 1744 1392 R0
SYMATTR InstName R17
SYMATTR Value 0.01
TEXT -352 -504 Left 2 !.ac dec 100 1k 100meg
TEXT 1496 304 Left 2 !.param L=2.2u
TEXT 1496 216 Left 2 !.param C = 3u
TEXT 1504 168 Left 2 !.param RL=0.2
TEXT 1496 248 Left 2 !.param Cd=15u
TEXT 1496 352 Left 2 !.param Rd=1
RECTANGLE Normal 2944 -80 176 -1184 2
RECTANGLE Normal 2912 1168 144 64 2
