Version 4.1
SHEET 1 3832 4404
WIRE -848 -448 -848 -496
WIRE -848 -448 -912 -448
WIRE -784 -448 -848 -448
WIRE -912 -416 -912 -448
WIRE -784 -400 -784 -448
WIRE -912 -288 -912 -336
WIRE -784 -288 -784 -320
WIRE -1984 -96 -2096 -96
WIRE -1792 -96 -1920 -96
WIRE -528 -80 -624 -80
WIRE -320 -80 -464 -80
WIRE -2096 16 -2096 -96
WIRE -2096 16 -2160 16
WIRE -2032 16 -2096 16
WIRE -1920 16 -1952 16
WIRE -1792 16 -1792 -96
WIRE -1792 16 -1840 16
WIRE -1632 16 -1792 16
WIRE -1552 16 -1632 16
WIRE -1424 16 -1552 16
WIRE -1280 16 -1424 16
WIRE -1072 16 -1280 16
WIRE -976 16 -976 -16
WIRE -976 16 -1072 16
WIRE -624 16 -624 -80
WIRE -624 16 -704 16
WIRE -576 16 -624 16
WIRE -464 16 -496 16
WIRE -320 16 -320 -80
WIRE -320 16 -384 16
WIRE 16 16 -320 16
WIRE 144 16 16 16
WIRE 320 16 144 16
WIRE 400 16 400 -16
WIRE 400 16 320 16
WIRE -2160 64 -2160 16
WIRE -704 64 -704 16
WIRE -1632 96 -1632 16
WIRE -1552 96 -1552 16
WIRE -1424 96 -1424 16
WIRE -1280 96 -1280 16
WIRE 16 96 16 16
WIRE 144 96 144 16
WIRE -1072 144 -1072 16
WIRE 320 144 320 16
WIRE -1632 208 -1632 176
WIRE -1552 208 -1552 176
WIRE -1424 208 -1424 176
WIRE -1280 208 -1280 176
WIRE 16 208 16 176
WIRE 144 208 144 176
WIRE -1072 272 -1072 224
WIRE 320 272 320 224
WIRE -1632 304 -1632 272
WIRE -1552 304 -1552 272
WIRE -1424 304 -1424 272
WIRE 16 304 16 272
WIRE -1280 320 -1280 272
WIRE 144 320 144 272
WIRE -1632 416 -1632 384
WIRE -1552 416 -1552 384
WIRE -1424 416 -1424 384
WIRE 16 416 16 384
WIRE -1280 432 -1280 400
WIRE 144 432 144 400
WIRE -1696 1296 -1808 1296
WIRE -1504 1296 -1632 1296
WIRE -480 1328 -576 1328
WIRE -272 1328 -416 1328
WIRE -1808 1408 -1808 1296
WIRE -1808 1408 -1968 1408
WIRE -1744 1408 -1808 1408
WIRE -1632 1408 -1664 1408
WIRE -1504 1408 -1504 1296
WIRE -1504 1408 -1552 1408
WIRE -1440 1408 -1504 1408
WIRE -1360 1408 -1440 1408
WIRE -1248 1408 -1360 1408
WIRE -1200 1408 -1200 1312
WIRE -1200 1408 -1248 1408
WIRE -1072 1408 -1200 1408
WIRE -5344 1424 -5360 1424
WIRE -5104 1424 -5264 1424
WIRE -4992 1424 -5104 1424
WIRE -4960 1424 -4992 1424
WIRE -4864 1424 -4880 1424
WIRE -4816 1424 -4864 1424
WIRE -4704 1424 -4736 1424
WIRE -4496 1424 -4624 1424
WIRE -4464 1424 -4496 1424
WIRE -4336 1424 -4384 1424
WIRE -4272 1424 -4336 1424
WIRE -4128 1424 -4192 1424
WIRE -4016 1424 -4128 1424
WIRE -3920 1424 -4016 1424
WIRE -3808 1424 -3920 1424
WIRE -3648 1424 -3808 1424
WIRE -3520 1424 -3648 1424
WIRE -3392 1424 -3440 1424
WIRE -576 1424 -576 1328
WIRE -576 1424 -736 1424
WIRE -528 1424 -576 1424
WIRE -416 1424 -448 1424
WIRE -272 1424 -272 1328
WIRE -272 1424 -336 1424
WIRE 48 1424 -272 1424
WIRE 96 1424 96 1248
WIRE 96 1424 48 1424
WIRE 192 1424 96 1424
WIRE -4864 1456 -4864 1424
WIRE -4336 1456 -4336 1424
WIRE -4128 1456 -4128 1424
WIRE -4016 1456 -4016 1424
WIRE -3920 1456 -3920 1424
WIRE -3808 1456 -3808 1424
WIRE -3648 1456 -3648 1424
WIRE -5104 1472 -5104 1424
WIRE -4992 1472 -4992 1424
WIRE -1440 1488 -1440 1408
WIRE -1360 1488 -1360 1408
WIRE -1248 1488 -1248 1408
WIRE -1072 1488 -1072 1408
WIRE -736 1504 -736 1424
WIRE 48 1504 48 1424
WIRE 192 1504 192 1424
WIRE -4336 1568 -4336 1536
WIRE -4128 1568 -4128 1536
WIRE -4016 1568 -4016 1536
WIRE -3920 1568 -3920 1536
WIRE -3808 1568 -3808 1536
WIRE -3648 1568 -3648 1536
WIRE -1968 1568 -1968 1408
WIRE -5104 1584 -5104 1552
WIRE -4992 1584 -4992 1552
WIRE -4864 1584 -4864 1536
WIRE -1440 1600 -1440 1568
WIRE -1360 1600 -1360 1568
WIRE -1248 1600 -1248 1568
WIRE -1072 1600 -1072 1568
WIRE 48 1616 48 1584
WIRE 192 1616 192 1584
WIRE -3392 1648 -3392 1424
WIRE -3184 1648 -3392 1648
WIRE -736 1664 -736 1504
WIRE -4864 1696 -4864 1648
WIRE -4336 1696 -4336 1632
WIRE -4128 1696 -4128 1632
WIRE -4016 1696 -4016 1632
WIRE -3920 1696 -3920 1632
WIRE -3808 1696 -3808 1632
WIRE -3648 1696 -3648 1632
WIRE -1440 1696 -1440 1664
WIRE -1360 1696 -1360 1664
WIRE -1248 1696 -1248 1664
WIRE -5104 1712 -5104 1648
WIRE -4992 1712 -4992 1648
WIRE -1968 1712 -1968 1648
WIRE -1072 1712 -1072 1664
WIRE 48 1712 48 1680
WIRE 192 1728 192 1680
WIRE -1440 1808 -1440 1776
WIRE -1360 1808 -1360 1776
WIRE -1248 1808 -1248 1776
WIRE -736 1808 -736 1744
WIRE -1072 1824 -1072 1792
WIRE 48 1824 48 1792
WIRE -3184 1840 -3184 1648
WIRE 192 1840 192 1808
WIRE -4496 1936 -4496 1424
WIRE -4464 1936 -4496 1936
WIRE -4336 1936 -4384 1936
WIRE -4272 1936 -4336 1936
WIRE -4128 1936 -4192 1936
WIRE -4016 1936 -4128 1936
WIRE -3920 1936 -4016 1936
WIRE -3808 1936 -3920 1936
WIRE -3648 1936 -3808 1936
WIRE -3520 1936 -3648 1936
WIRE -3392 1936 -3392 1648
WIRE -3392 1936 -3440 1936
WIRE -4128 1968 -4128 1936
WIRE -4016 1968 -4016 1936
WIRE -3920 1968 -3920 1936
WIRE -3808 1968 -3808 1936
WIRE -3184 1968 -3184 1920
WIRE -4336 1984 -4336 1936
WIRE -3648 1984 -3648 1936
WIRE -4128 2080 -4128 2048
WIRE -4016 2080 -4016 2048
WIRE -3920 2080 -3920 2048
WIRE -3808 2080 -3808 2048
WIRE -4336 2096 -4336 2064
WIRE -3648 2096 -3648 2064
WIRE -4128 2208 -4128 2144
WIRE -4016 2208 -4016 2144
WIRE -3920 2208 -3920 2144
WIRE -3808 2208 -3808 2144
WIRE -4336 2224 -4336 2160
WIRE -3648 2224 -3648 2160
WIRE -5504 2512 -5504 2496
WIRE -5376 2512 -5504 2512
WIRE -5088 2512 -5296 2512
WIRE -4976 2512 -5088 2512
WIRE -4944 2512 -4976 2512
WIRE -4848 2512 -4864 2512
WIRE -4800 2512 -4848 2512
WIRE -4688 2512 -4720 2512
WIRE -4480 2512 -4608 2512
WIRE -4448 2512 -4480 2512
WIRE -4320 2512 -4368 2512
WIRE -4256 2512 -4320 2512
WIRE -4112 2512 -4176 2512
WIRE -4000 2512 -4112 2512
WIRE -3904 2512 -4000 2512
WIRE -3792 2512 -3904 2512
WIRE -3648 2512 -3792 2512
WIRE -3584 2512 -3648 2512
WIRE -3456 2512 -3504 2512
WIRE -4848 2544 -4848 2512
WIRE -4320 2544 -4320 2512
WIRE -4112 2544 -4112 2512
WIRE -4000 2544 -4000 2512
WIRE -3904 2544 -3904 2512
WIRE -3792 2544 -3792 2512
WIRE -3648 2544 -3648 2512
WIRE -5088 2560 -5088 2512
WIRE -4976 2560 -4976 2512
WIRE -4320 2656 -4320 2624
WIRE -4112 2656 -4112 2624
WIRE -4000 2656 -4000 2624
WIRE -3904 2656 -3904 2624
WIRE -3792 2656 -3792 2624
WIRE -3648 2656 -3648 2624
WIRE -5088 2672 -5088 2640
WIRE -4976 2672 -4976 2640
WIRE -4848 2672 -4848 2624
WIRE -4848 2784 -4848 2736
WIRE -4320 2784 -4320 2720
WIRE -4112 2784 -4112 2720
WIRE -4000 2784 -4000 2720
WIRE -3904 2784 -3904 2720
WIRE -3792 2784 -3792 2720
WIRE -3648 2784 -3648 2720
WIRE -5504 2800 -5504 2512
WIRE -5088 2800 -5088 2736
WIRE -4976 2800 -4976 2736
WIRE -5504 2944 -5504 2880
WIRE -1696 2960 -1808 2960
WIRE -1504 2960 -1632 2960
WIRE -480 2992 -576 2992
WIRE -272 2992 -416 2992
WIRE -4480 3024 -4480 2512
WIRE -4448 3024 -4480 3024
WIRE -4320 3024 -4368 3024
WIRE -4256 3024 -4320 3024
WIRE -4112 3024 -4176 3024
WIRE -4000 3024 -4112 3024
WIRE -3904 3024 -4000 3024
WIRE -3792 3024 -3904 3024
WIRE -3648 3024 -3792 3024
WIRE -3584 3024 -3648 3024
WIRE -3456 3024 -3456 2512
WIRE -3456 3024 -3504 3024
WIRE -4112 3056 -4112 3024
WIRE -4000 3056 -4000 3024
WIRE -3904 3056 -3904 3024
WIRE -3792 3056 -3792 3024
WIRE -4320 3072 -4320 3024
WIRE -3648 3072 -3648 3024
WIRE -1808 3072 -1808 2960
WIRE -1808 3072 -1968 3072
WIRE -1744 3072 -1808 3072
WIRE -1632 3072 -1664 3072
WIRE -1504 3072 -1504 2960
WIRE -1504 3072 -1552 3072
WIRE -1344 3072 -1504 3072
WIRE -1232 3072 -1344 3072
WIRE -1072 3072 -1232 3072
WIRE -576 3088 -576 2992
WIRE -576 3088 -736 3088
WIRE -528 3088 -576 3088
WIRE -416 3088 -448 3088
WIRE -272 3088 -272 2992
WIRE -272 3088 -336 3088
WIRE 16 3088 -272 3088
WIRE 192 3088 16 3088
WIRE -1344 3152 -1344 3072
WIRE -1232 3152 -1232 3072
WIRE -1072 3152 -1072 3072
WIRE -4112 3168 -4112 3136
WIRE -4000 3168 -4000 3136
WIRE -3904 3168 -3904 3136
WIRE -3792 3168 -3792 3136
WIRE 16 3168 16 3088
WIRE 192 3168 192 3088
WIRE -4320 3184 -4320 3152
WIRE -3648 3184 -3648 3152
WIRE -1968 3232 -1968 3072
WIRE -1344 3264 -1344 3232
WIRE -1232 3264 -1232 3232
WIRE -1072 3264 -1072 3232
WIRE 16 3280 16 3248
WIRE 192 3280 192 3248
WIRE -4112 3296 -4112 3232
WIRE -4000 3296 -4000 3232
WIRE -3904 3296 -3904 3232
WIRE -3792 3296 -3792 3232
WIRE -4320 3312 -4320 3248
WIRE -3648 3312 -3648 3248
WIRE -736 3328 -736 3088
WIRE -1344 3360 -1344 3328
WIRE -1232 3360 -1232 3328
WIRE -1968 3376 -1968 3312
WIRE -1072 3376 -1072 3328
WIRE 16 3376 16 3344
WIRE 192 3392 192 3344
WIRE -1344 3472 -1344 3440
WIRE -1232 3472 -1232 3440
WIRE -736 3472 -736 3408
WIRE -1072 3488 -1072 3456
WIRE 16 3488 16 3456
WIRE 192 3504 192 3472
WIRE -4976 3584 -5088 3584
WIRE -4912 3584 -4976 3584
WIRE -4816 3584 -4832 3584
WIRE -4768 3584 -4816 3584
WIRE -4656 3584 -4688 3584
WIRE -4448 3584 -4576 3584
WIRE -4416 3584 -4448 3584
WIRE -4288 3584 -4336 3584
WIRE -4224 3584 -4288 3584
WIRE -4080 3584 -4144 3584
WIRE -3968 3584 -4080 3584
WIRE -3872 3584 -3968 3584
WIRE -3760 3584 -3872 3584
WIRE -3616 3584 -3760 3584
WIRE -3552 3584 -3616 3584
WIRE -3424 3584 -3472 3584
WIRE -4816 3616 -4816 3584
WIRE -4288 3616 -4288 3584
WIRE -4080 3616 -4080 3584
WIRE -3968 3616 -3968 3584
WIRE -3872 3616 -3872 3584
WIRE -3760 3616 -3760 3584
WIRE -3616 3616 -3616 3584
WIRE -5088 3632 -5088 3584
WIRE -4976 3632 -4976 3584
WIRE -3424 3648 -3424 3584
WIRE -3296 3648 -3424 3648
WIRE -4288 3728 -4288 3696
WIRE -4080 3728 -4080 3696
WIRE -3968 3728 -3968 3696
WIRE -3872 3728 -3872 3696
WIRE -3760 3728 -3760 3696
WIRE -3616 3728 -3616 3696
WIRE -5088 3744 -5088 3712
WIRE -4976 3744 -4976 3712
WIRE -4816 3744 -4816 3696
WIRE -3296 3840 -3296 3648
WIRE -4816 3856 -4816 3808
WIRE -4288 3856 -4288 3792
WIRE -4080 3856 -4080 3792
WIRE -3968 3856 -3968 3792
WIRE -3872 3856 -3872 3792
WIRE -3760 3856 -3760 3792
WIRE -3616 3856 -3616 3792
WIRE -5088 3872 -5088 3808
WIRE -4976 3872 -4976 3808
WIRE -3296 3984 -3296 3920
WIRE -4448 4096 -4448 3584
WIRE -4416 4096 -4448 4096
WIRE -4288 4096 -4336 4096
WIRE -4224 4096 -4288 4096
WIRE -4080 4096 -4144 4096
WIRE -3968 4096 -4080 4096
WIRE -3872 4096 -3968 4096
WIRE -3760 4096 -3872 4096
WIRE -3616 4096 -3760 4096
WIRE -3552 4096 -3616 4096
WIRE -3424 4096 -3424 3648
WIRE -3424 4096 -3472 4096
WIRE -4080 4128 -4080 4096
WIRE -3968 4128 -3968 4096
WIRE -3872 4128 -3872 4096
WIRE -3760 4128 -3760 4096
WIRE -4288 4144 -4288 4096
WIRE -3616 4144 -3616 4096
WIRE -4080 4240 -4080 4208
WIRE -3968 4240 -3968 4208
WIRE -3872 4240 -3872 4208
WIRE -3760 4240 -3760 4208
WIRE -4288 4256 -4288 4224
WIRE -3616 4256 -3616 4224
WIRE -4080 4368 -4080 4304
WIRE -3968 4368 -3968 4304
WIRE -3872 4368 -3872 4304
WIRE -3760 4368 -3760 4304
WIRE -4288 4384 -4288 4320
WIRE -3616 4384 -3616 4320
FLAG -1632 416 0
FLAG -2160 64 0
FLAG -976 -16 Z1
FLAG -704 64 0
FLAG 400 -16 Z2
FLAG -1280 432 0
FLAG 144 432 0
FLAG -1968 1712 0
FLAG -1968 1408 in3
FLAG -736 1808 0
FLAG -736 1504 in4
FLAG -1072 1824 0
FLAG 192 1840 0
FLAG -1072 272 0
FLAG 320 272 0
FLAG -784 -288 0
FLAG -912 -288 0
FLAG -848 -496 Zin
FLAG -1552 416 0
FLAG -1200 1312 out1
FLAG 96 1248 out2
FLAG -1968 3376 0
FLAG -736 3472 0
FLAG -1072 3488 0
FLAG 192 3504 0
FLAG -1424 416 0
FLAG -1248 1808 0
FLAG 48 1824 0
FLAG 16 3488 0
FLAG -1440 1808 0
FLAG -1360 1808 0
FLAG -1344 3472 0
FLAG -1232 3472 0
FLAG 16 416 0
FLAG -4336 1696 0
FLAG -4864 1696 0
FLAG -4336 2224 0
FLAG -4128 1696 0
FLAG -3648 2224 0
FLAG -3648 1696 0
FLAG -5360 1424 0
FLAG -3184 1968 0
FLAG -4320 2784 0
FLAG -4848 2784 0
FLAG -4320 3312 0
FLAG -3648 3312 0
FLAG -3648 2784 0
FLAG -5504 2944 0
FLAG -4016 1696 0
FLAG -3920 1696 0
FLAG -3808 1696 0
FLAG -4128 2208 0
FLAG -4016 2208 0
FLAG -3920 2208 0
FLAG -3808 2208 0
FLAG -4112 2784 0
FLAG -4000 2784 0
FLAG -3904 2784 0
FLAG -3792 2784 0
FLAG -4112 3296 0
FLAG -4000 3296 0
FLAG -3904 3296 0
FLAG -3792 3296 0
FLAG -4288 3856 0
FLAG -4816 3856 0
FLAG -4288 4384 0
FLAG -3616 4384 0
FLAG -3616 3856 0
FLAG -4080 3856 0
FLAG -3968 3856 0
FLAG -3872 3856 0
FLAG -3760 3856 0
FLAG -4080 4368 0
FLAG -3968 4368 0
FLAG -3872 4368 0
FLAG -3760 4368 0
FLAG -3296 3984 0
FLAG -5088 3872 0
FLAG -4976 3872 0
FLAG -5088 2800 0
FLAG -4976 2800 0
FLAG -5104 1712 0
FLAG -4992 1712 0
SYMBOL res -1824 0 R90
WINDOW 0 0 56 VBottom 2
WINDOW 3 32 56 VTop 2
SYMATTR InstName R1
SYMATTR Value 6m
SYMBOL ind -2048 32 R270
WINDOW 0 32 56 VTop 2
WINDOW 3 5 56 VBottom 2
SYMATTR InstName L1
SYMATTR Value 1µ
SYMATTR SpiceLine Rser=1m
SYMBOL cap -1648 208 R0
SYMATTR InstName C1
SYMATTR Value {Cd}
SYMBOL res -368 0 R90
WINDOW 0 0 56 VBottom 2
WINDOW 3 32 56 VTop 2
SYMATTR InstName R4
SYMATTR Value 6m
SYMBOL ind -592 32 R270
WINDOW 0 32 56 VTop 2
WINDOW 3 5 56 VBottom 2
SYMATTR InstName L2
SYMATTR Value 1µ
SYMATTR SpiceLine Rser=1m
SYMBOL ind -1648 288 R0
SYMATTR InstName L5
SYMATTR Value 5n
SYMATTR SpiceLine Rser=1m
SYMBOL cap -1296 208 R0
SYMATTR InstName C3
SYMATTR Value 0.1µ
SYMBOL ind -1296 304 R0
SYMATTR InstName L6
SYMATTR Value 250p
SYMATTR SpiceLine Rser=1m
SYMBOL res -1296 80 R0
SYMATTR InstName R5
SYMATTR Value 0.01
SYMBOL cap 128 208 R0
SYMATTR InstName C5
SYMATTR Value 0.1µ
SYMBOL ind 128 304 R0
SYMATTR InstName L7
SYMATTR Value 250p
SYMATTR SpiceLine Rser=1m
SYMBOL res 128 80 R0
SYMATTR InstName R7
SYMATTR Value 0.01
SYMBOL cap -1920 -112 R90
WINDOW 0 0 32 VBottom 2
WINDOW 3 32 32 VTop 2
SYMATTR InstName C6
SYMATTR Value 10p
SYMBOL cap -464 -96 R90
WINDOW 0 0 32 VBottom 2
WINDOW 3 32 32 VTop 2
SYMATTR InstName C7
SYMATTR Value 10p
SYMBOL res -1536 1392 R90
WINDOW 0 0 56 VBottom 2
WINDOW 3 32 56 VTop 2
SYMATTR InstName R8
SYMATTR Value 6m
SYMBOL ind -1760 1424 R270
WINDOW 0 32 56 VTop 2
WINDOW 3 5 56 VBottom 2
SYMATTR InstName L8
SYMATTR Value 1µ
SYMATTR SpiceLine Rser=1m
SYMBOL voltage -1968 1552 R0
WINDOW 123 24 120 Left 2
WINDOW 39 0 0 Left 0
SYMATTR Value2 AC 1
SYMATTR InstName V3
SYMATTR Value ""
SYMBOL res -320 1408 R90
WINDOW 0 0 56 VBottom 2
WINDOW 3 32 56 VTop 2
SYMATTR InstName R11
SYMATTR Value 6m
SYMBOL ind -544 1440 R270
WINDOW 0 32 56 VTop 2
WINDOW 3 5 56 VBottom 2
SYMATTR InstName L9
SYMATTR Value 1µ
SYMATTR SpiceLine Rser=1m
SYMBOL voltage -736 1648 R0
WINDOW 123 24 120 Left 2
WINDOW 39 0 0 Left 0
SYMATTR Value2 AC 1
SYMATTR InstName V4
SYMATTR Value ""
SYMBOL cap -1088 1600 R0
SYMATTR InstName C11
SYMATTR Value 0.1µ
SYMBOL ind -1088 1696 R0
SYMATTR InstName L13
SYMATTR Value 250p
SYMATTR SpiceLine Rser=1m
SYMBOL res -1088 1472 R0
SYMATTR InstName R13
SYMATTR Value 0.01
SYMBOL cap 176 1616 R0
SYMATTR InstName C12
SYMATTR Value 0.1µ
SYMBOL ind 176 1712 R0
SYMATTR InstName L14
SYMATTR Value 250p
SYMATTR SpiceLine Rser=1m
SYMBOL res 176 1488 R0
SYMATTR InstName R14
SYMATTR Value 0.01
SYMBOL cap -1632 1280 R90
WINDOW 0 0 32 VBottom 2
WINDOW 3 32 32 VTop 2
SYMATTR InstName C13
SYMATTR Value 10p
SYMBOL cap -416 1312 R90
WINDOW 0 0 32 VBottom 2
WINDOW 3 32 32 VTop 2
SYMATTR InstName C14
SYMATTR Value 10p
SYMBOL current -1072 224 R180
WINDOW 123 24 104 Left 2
WINDOW 39 0 0 Left 0
SYMATTR Value2 AC 1
SYMATTR InstName I1
SYMATTR Value ""
SYMBOL current 320 224 R180
WINDOW 123 24 104 Left 2
WINDOW 39 0 0 Left 0
SYMATTR Value2 AC 1
SYMATTR InstName I2
SYMATTR Value ""
SYMBOL current -912 -336 R180
WINDOW 123 24 104 Left 2
WINDOW 39 0 0 Left 0
SYMATTR Value2 AC 1
SYMATTR InstName I3
SYMATTR Value ""
SYMBOL res -800 -416 R0
SYMATTR InstName R15
SYMATTR Value {Zin}
SYMBOL res -1568 80 R0
SYMATTR InstName R16
SYMATTR Value {Rd}
SYMBOL ind -1568 288 R0
SYMATTR InstName L15
SYMATTR Value 5n
SYMATTR SpiceLine Rser=1m
SYMBOL cap -1568 208 R0
SYMATTR InstName C17
SYMATTR Value {Cd}
SYMBOL res -1536 3056 R90
WINDOW 0 0 56 VBottom 2
WINDOW 3 32 56 VTop 2
SYMATTR InstName R9
SYMATTR Value 6m
SYMBOL ind -1760 3088 R270
WINDOW 0 32 56 VTop 2
WINDOW 3 5 56 VBottom 2
SYMATTR InstName L12
SYMATTR Value 1µ
SYMATTR SpiceLine Rser=1m
SYMBOL voltage -1968 3216 R0
WINDOW 123 24 120 Left 2
WINDOW 39 0 0 Left 0
SYMATTR Value2 AC 1
SYMATTR InstName V1
SYMATTR Value ""
SYMBOL res -320 3072 R90
WINDOW 0 0 56 VBottom 2
WINDOW 3 32 56 VTop 2
SYMATTR InstName R20
SYMATTR Value 6m
SYMBOL ind -544 3104 R270
WINDOW 0 32 56 VTop 2
WINDOW 3 5 56 VBottom 2
SYMATTR InstName L16
SYMATTR Value 1µ
SYMATTR SpiceLine Rser=1m
SYMBOL voltage -736 3312 R0
WINDOW 123 24 120 Left 2
WINDOW 39 0 0 Left 0
SYMATTR Value2 AC 1
SYMATTR InstName V2
SYMATTR Value ""
SYMBOL cap -1088 3264 R0
SYMATTR InstName C19
SYMATTR Value 0.1µ
SYMBOL ind -1088 3360 R0
SYMATTR InstName L21
SYMATTR Value 250p
SYMATTR SpiceLine Rser=1m
SYMBOL res -1088 3136 R0
SYMATTR InstName R22
SYMATTR Value 0.01
SYMBOL cap 176 3280 R0
SYMATTR InstName C20
SYMATTR Value 0.1µ
SYMBOL ind 176 3376 R0
SYMATTR InstName L22
SYMATTR Value 250p
SYMATTR SpiceLine Rser=1m
SYMBOL res 176 3152 R0
SYMATTR InstName R23
SYMATTR Value 0.01
SYMBOL cap -1632 2944 R90
WINDOW 0 0 32 VBottom 2
WINDOW 3 32 32 VTop 2
SYMATTR InstName C21
SYMATTR Value 10p
SYMBOL cap -416 2976 R90
WINDOW 0 0 32 VBottom 2
WINDOW 3 32 32 VTop 2
SYMATTR InstName C22
SYMATTR Value 10p
SYMBOL cap -1440 208 R0
SYMATTR InstName C23
SYMATTR Value {Cf}
SYMBOL res -1440 80 R0
SYMATTR InstName R24
SYMATTR Value 2m
SYMBOL ind -1440 288 R0
SYMATTR InstName L23
SYMATTR Value 250p
SYMATTR SpiceLine Rser=1m
SYMBOL cap -1264 1600 R0
SYMATTR InstName C2
SYMATTR Value {Cf}
SYMBOL res -1264 1472 R0
SYMATTR InstName R3
SYMATTR Value 2m
SYMBOL ind -1264 1680 R0
SYMATTR InstName L3
SYMATTR Value 250p
SYMATTR SpiceLine Rser=1m
SYMBOL cap 32 1616 R0
SYMATTR InstName C4
SYMATTR Value {Cf}
SYMBOL res 32 1488 R0
SYMATTR InstName R6
SYMATTR Value 2m
SYMBOL ind 32 1696 R0
SYMATTR InstName L4
SYMATTR Value 250p
SYMATTR SpiceLine Rser=1m
SYMBOL cap 0 3280 R0
SYMATTR InstName C9
SYMATTR Value 2µ
SYMBOL res 0 3152 R0
SYMATTR InstName R12
SYMATTR Value 2m
SYMBOL ind 0 3360 R0
SYMATTR InstName L11
SYMATTR Value 250p
SYMATTR SpiceLine Rser=1m
SYMBOL res -1648 80 R0
SYMATTR InstName R2
SYMATTR Value {Rd}
SYMBOL cap -1456 1600 R0
SYMATTR InstName C10
SYMATTR Value {Cd}
SYMBOL ind -1456 1680 R0
SYMATTR InstName L17
SYMATTR Value 5n
SYMATTR SpiceLine Rser=1m
SYMBOL res -1376 1472 R0
SYMATTR InstName R17
SYMATTR Value {Rd}
SYMBOL ind -1376 1680 R0
SYMATTR InstName L18
SYMATTR Value 5n
SYMATTR SpiceLine Rser=1m
SYMBOL cap -1376 1600 R0
SYMATTR InstName C15
SYMATTR Value {Cd}
SYMBOL res -1456 1472 R0
SYMATTR InstName R18
SYMATTR Value {Rd}
SYMBOL cap -1360 3264 R0
SYMATTR InstName C8
SYMATTR Value {Cd}
SYMBOL ind -1360 3344 R0
SYMATTR InstName L10
SYMATTR Value 5n
SYMATTR SpiceLine Rser=1m
SYMBOL res -1360 3136 R0
SYMATTR InstName R19
SYMATTR Value {Rd}
SYMBOL cap -1248 3264 R0
SYMATTR InstName C16
SYMATTR Value 2µ
SYMBOL res -1248 3136 R0
SYMATTR InstName R10
SYMATTR Value 2m
SYMBOL ind -1248 3344 R0
SYMATTR InstName L19
SYMATTR Value 250p
SYMATTR SpiceLine Rser=1m
SYMBOL cap 0 208 R0
SYMATTR InstName C18
SYMATTR Value {Cf}
SYMBOL res 0 80 R0
SYMATTR InstName R21
SYMATTR Value 2m
SYMBOL ind 0 288 R0
SYMATTR InstName L20
SYMATTR Value 250p
SYMATTR SpiceLine Rser=1m
SYMBOL cap -4144 1568 R0
SYMATTR InstName C24
SYMATTR Value {Ci}
SYMATTR SpiceLine Lser=200p
SYMBOL cap -4352 1568 R0
SYMATTR InstName C25
SYMATTR Value 47µ
SYMATTR SpiceLine Rser=10m Lser=2n
SYMBOL res -4352 1440 R0
SYMATTR InstName R25
SYMATTR Value 0.4
SYMBOL res -4144 1440 R0
SYMATTR InstName R26
SYMATTR Value 4m
SYMBOL res -4880 1440 R0
SYMATTR InstName R27
SYMATTR Value 0.5
SYMBOL ind -4832 1440 R270
WINDOW 0 32 56 VTop 2
WINDOW 3 5 56 VBottom 2
SYMATTR InstName L24
SYMATTR Value 1µ
SYMATTR SpiceLine Rser=1m
SYMBOL res -4608 1408 R90
WINDOW 0 0 56 VBottom 2
WINDOW 3 32 56 VTop 2
SYMATTR InstName R28
SYMATTR Value 5.6m
SYMBOL cap -4880 1584 R0
SYMATTR InstName C26
SYMATTR Value 47µ
SYMBOL res -5248 1408 R90
WINDOW 0 0 56 VBottom 2
WINDOW 3 32 56 VTop 2
SYMATTR InstName R29
SYMATTR Value 5m
SYMBOL cap -4352 2096 R0
SYMATTR InstName C27
SYMATTR Value 47µ
SYMATTR SpiceLine Rser=10m Lser=2n
SYMBOL res -4352 1968 R0
SYMATTR InstName R30
SYMATTR Value 0.4
SYMBOL res -4176 1920 R90
WINDOW 0 0 56 VBottom 2
WINDOW 3 32 56 VTop 2
SYMATTR InstName R31
SYMATTR Value 1m
SYMBOL res -4176 1408 R90
WINDOW 0 0 56 VBottom 2
WINDOW 3 32 56 VTop 2
SYMATTR InstName R32
SYMATTR Value 1m
SYMBOL res -3424 1408 R90
WINDOW 0 0 56 VBottom 2
WINDOW 3 32 56 VTop 2
SYMATTR InstName R33
SYMATTR Value 1m
SYMBOL res -3424 1920 R90
WINDOW 0 0 56 VBottom 2
WINDOW 3 32 56 VTop 2
SYMATTR InstName R34
SYMATTR Value 1m
SYMBOL res -4368 1920 R90
WINDOW 0 0 56 VBottom 2
WINDOW 3 32 56 VTop 2
SYMATTR InstName R38
SYMATTR Value 1m
SYMBOL res -4368 1408 R90
WINDOW 0 0 56 VBottom 2
WINDOW 3 32 56 VTop 2
SYMATTR InstName R39
SYMATTR Value 1m
SYMBOL cap -3664 2096 R0
SYMATTR InstName C33
SYMATTR Value 0.1µ
SYMATTR SpiceLine Lser=200p
SYMBOL res -3664 1968 R0
SYMATTR InstName R42
SYMATTR Value 2m
SYMBOL cap -3664 1568 R0
SYMATTR InstName C34
SYMATTR Value 0.1µ
SYMATTR SpiceLine Lser=200p
SYMBOL res -3664 1440 R0
SYMATTR InstName R43
SYMATTR Value 2m
SYMBOL current -3184 1920 R180
WINDOW 123 24 104 Left 2
WINDOW 39 0 0 Left 0
SYMATTR Value2 AC 1
SYMATTR InstName I4
SYMATTR Value ""
SYMBOL cap -4336 2656 R0
SYMATTR InstName C36
SYMATTR Value 47µ
SYMATTR SpiceLine Lser=3n
SYMBOL res -4336 2528 R0
SYMATTR InstName R44
SYMATTR Value 0.4
SYMBOL res -4864 2528 R0
SYMATTR InstName R46
SYMATTR Value 0.4
SYMBOL ind -4816 2528 R270
WINDOW 0 32 56 VTop 2
WINDOW 3 5 56 VBottom 2
SYMATTR InstName L25
SYMATTR Value 1µ
SYMATTR SpiceLine Rser=1m
SYMBOL res -4592 2496 R90
WINDOW 0 0 56 VBottom 2
WINDOW 3 32 56 VTop 2
SYMATTR InstName R47
SYMATTR Value 5.6m
SYMBOL cap -4864 2672 R0
SYMATTR InstName C37
SYMATTR Value 47µ
SYMATTR SpiceLine Lser=3n
SYMBOL res -5280 2496 R90
WINDOW 0 0 56 VBottom 2
WINDOW 3 32 56 VTop 2
SYMATTR InstName R48
SYMATTR Value 5m
SYMBOL cap -4336 3184 R0
SYMATTR InstName C38
SYMATTR Value 47µ
SYMATTR SpiceLine Lser=3n
SYMBOL res -4336 3056 R0
SYMATTR InstName R49
SYMATTR Value 0.4
SYMBOL res -4160 3008 R90
WINDOW 0 0 56 VBottom 2
WINDOW 3 32 56 VTop 2
SYMATTR InstName R50
SYMATTR Value 1m
SYMBOL res -4160 2496 R90
WINDOW 0 0 56 VBottom 2
WINDOW 3 32 56 VTop 2
SYMATTR InstName R51
SYMATTR Value 1m
SYMBOL res -3488 2496 R90
WINDOW 0 0 56 VBottom 2
WINDOW 3 32 56 VTop 2
SYMATTR InstName R52
SYMATTR Value 1m
SYMBOL res -3488 3008 R90
WINDOW 0 0 56 VBottom 2
WINDOW 3 32 56 VTop 2
SYMATTR InstName R53
SYMATTR Value 1m
SYMBOL res -4352 3008 R90
WINDOW 0 0 56 VBottom 2
WINDOW 3 32 56 VTop 2
SYMATTR InstName R57
SYMATTR Value 1m
SYMBOL res -4352 2496 R90
WINDOW 0 0 56 VBottom 2
WINDOW 3 32 56 VTop 2
SYMATTR InstName R58
SYMATTR Value 1m
SYMBOL cap -3664 3184 R0
SYMATTR InstName C39
SYMATTR Value 0.1µ
SYMATTR SpiceLine Lser=200p
SYMBOL res -3664 3056 R0
SYMATTR InstName R61
SYMATTR Value 2m
SYMBOL cap -3664 2656 R0
SYMATTR InstName C40
SYMATTR Value 0.1µ
SYMATTR SpiceLine Lser=200p
SYMBOL res -3664 2528 R0
SYMATTR InstName R62
SYMATTR Value 2m
SYMBOL voltage -5504 2784 R0
WINDOW 123 24 120 Left 2
WINDOW 39 0 0 Left 0
SYMATTR Value2 AC 1
SYMATTR InstName V5
SYMATTR Value ""
SYMBOL cap -4032 1568 R0
SYMATTR InstName C28
SYMATTR Value {Ci}
SYMATTR SpiceLine Lser=200p
SYMBOL res -4032 1440 R0
SYMATTR InstName R35
SYMATTR Value 4m
SYMBOL cap -3936 1568 R0
SYMATTR InstName C29
SYMATTR Value {Ci}
SYMATTR SpiceLine Lser=200p
SYMBOL res -3936 1440 R0
SYMATTR InstName R36
SYMATTR Value 4m
SYMBOL cap -3824 1568 R0
SYMATTR InstName C30
SYMATTR Value {Ci}
SYMATTR SpiceLine Lser=200p
SYMBOL res -3824 1440 R0
SYMATTR InstName R37
SYMATTR Value 4m
SYMBOL cap -4144 2080 R0
SYMATTR InstName C31
SYMATTR Value {Ci}
SYMATTR SpiceLine Lser=200p
SYMBOL res -4144 1952 R0
SYMATTR InstName R40
SYMATTR Value 4m
SYMBOL cap -4032 2080 R0
SYMATTR InstName C32
SYMATTR Value {Ci}
SYMATTR SpiceLine Lser=200p
SYMBOL res -4032 1952 R0
SYMATTR InstName R41
SYMATTR Value 4m
SYMBOL cap -3936 2080 R0
SYMATTR InstName C35
SYMATTR Value {Ci}
SYMATTR SpiceLine Lser=200p
SYMBOL res -3936 1952 R0
SYMATTR InstName R45
SYMATTR Value 4m
SYMBOL cap -3824 2080 R0
SYMATTR InstName C41
SYMATTR Value {Ci}
SYMATTR SpiceLine Lser=200p
SYMBOL res -3824 1952 R0
SYMATTR InstName R54
SYMATTR Value 4m
SYMBOL cap -4128 2656 R0
SYMATTR InstName C42
SYMATTR Value {Ci}
SYMATTR SpiceLine Lser=200p
SYMBOL res -4128 2528 R0
SYMATTR InstName R55
SYMATTR Value 4m
SYMBOL cap -4016 2656 R0
SYMATTR InstName C43
SYMATTR Value {Ci}
SYMATTR SpiceLine Lser=200p
SYMBOL res -4016 2528 R0
SYMATTR InstName R56
SYMATTR Value 4m
SYMBOL cap -3920 2656 R0
SYMATTR InstName C44
SYMATTR Value {Ci}
SYMATTR SpiceLine Lser=200p
SYMBOL res -3920 2528 R0
SYMATTR InstName R59
SYMATTR Value 4m
SYMBOL cap -3808 2656 R0
SYMATTR InstName C45
SYMATTR Value {Ci}
SYMATTR SpiceLine Lser=200p
SYMBOL res -3808 2528 R0
SYMATTR InstName R60
SYMATTR Value 4m
SYMBOL cap -4128 3168 R0
SYMATTR InstName C46
SYMATTR Value {Ci}
SYMATTR SpiceLine Lser=200p
SYMBOL res -4128 3040 R0
SYMATTR InstName R63
SYMATTR Value 4m
SYMBOL cap -4016 3168 R0
SYMATTR InstName C47
SYMATTR Value {Ci}
SYMATTR SpiceLine Lser=200p
SYMBOL res -4016 3040 R0
SYMATTR InstName R64
SYMATTR Value 4m
SYMBOL cap -3920 3168 R0
SYMATTR InstName C48
SYMATTR Value {Ci}
SYMATTR SpiceLine Lser=200p
SYMBOL res -3920 3040 R0
SYMATTR InstName R65
SYMATTR Value 4m
SYMBOL cap -3808 3168 R0
SYMATTR InstName C49
SYMATTR Value {Ci}
SYMATTR SpiceLine Lser=200p
SYMBOL res -3808 3040 R0
SYMATTR InstName R66
SYMATTR Value 4m
SYMBOL cap -4304 3728 R0
SYMATTR InstName C50
SYMATTR Value 47µ
SYMATTR SpiceLine Lser=3n
SYMBOL res -4304 3600 R0
SYMATTR InstName R67
SYMATTR Value 0.4
SYMBOL res -4832 3600 R0
SYMATTR InstName R68
SYMATTR Value 0.4
SYMBOL ind -4784 3600 R270
WINDOW 0 32 56 VTop 2
WINDOW 3 5 56 VBottom 2
SYMATTR InstName L26
SYMATTR Value 1µ
SYMATTR SpiceLine Rser=1m
SYMBOL res -4560 3568 R90
WINDOW 0 0 56 VBottom 2
WINDOW 3 32 56 VTop 2
SYMATTR InstName R69
SYMATTR Value 5.6m
SYMBOL cap -4832 3744 R0
SYMATTR InstName C51
SYMATTR Value 47µ
SYMATTR SpiceLine Lser=3n
SYMBOL cap -4304 4256 R0
SYMATTR InstName C52
SYMATTR Value 47µ
SYMATTR SpiceLine Lser=3n
SYMBOL res -4304 4128 R0
SYMATTR InstName R71
SYMATTR Value 0.4
SYMBOL res -4128 4080 R90
WINDOW 0 0 56 VBottom 2
WINDOW 3 32 56 VTop 2
SYMATTR InstName R72
SYMATTR Value 1m
SYMBOL res -4128 3568 R90
WINDOW 0 0 56 VBottom 2
WINDOW 3 32 56 VTop 2
SYMATTR InstName R73
SYMATTR Value 1m
SYMBOL res -3456 3568 R90
WINDOW 0 0 56 VBottom 2
WINDOW 3 32 56 VTop 2
SYMATTR InstName R74
SYMATTR Value 1m
SYMBOL res -3456 4080 R90
WINDOW 0 0 56 VBottom 2
WINDOW 3 32 56 VTop 2
SYMATTR InstName R75
SYMATTR Value 1m
SYMBOL res -4320 4080 R90
WINDOW 0 0 56 VBottom 2
WINDOW 3 32 56 VTop 2
SYMATTR InstName R76
SYMATTR Value 1m
SYMBOL res -4320 3568 R90
WINDOW 0 0 56 VBottom 2
WINDOW 3 32 56 VTop 2
SYMATTR InstName R77
SYMATTR Value 1m
SYMBOL cap -3632 4256 R0
SYMATTR InstName C53
SYMATTR Value 0.1µ
SYMATTR SpiceLine Lser=200p
SYMBOL res -3632 4128 R0
SYMATTR InstName R78
SYMATTR Value 2m
SYMBOL cap -3632 3728 R0
SYMATTR InstName C54
SYMATTR Value 0.1µ
SYMATTR SpiceLine Lser=200p
SYMBOL res -3632 3600 R0
SYMATTR InstName R79
SYMATTR Value 2m
SYMBOL cap -4096 3728 R0
SYMATTR InstName C55
SYMATTR Value {Ci}
SYMATTR SpiceLine Lser=200p
SYMBOL res -4096 3600 R0
SYMATTR InstName R80
SYMATTR Value 4m
SYMBOL cap -3984 3728 R0
SYMATTR InstName C56
SYMATTR Value {Ci}
SYMATTR SpiceLine Lser=200p
SYMBOL res -3984 3600 R0
SYMATTR InstName R81
SYMATTR Value 4m
SYMBOL cap -3888 3728 R0
SYMATTR InstName C57
SYMATTR Value {Ci}
SYMATTR SpiceLine Lser=200p
SYMBOL res -3888 3600 R0
SYMATTR InstName R82
SYMATTR Value 4m
SYMBOL cap -3776 3728 R0
SYMATTR InstName C58
SYMATTR Value {Ci}
SYMATTR SpiceLine Lser=200p
SYMBOL res -3776 3600 R0
SYMATTR InstName R83
SYMATTR Value 4m
SYMBOL cap -4096 4240 R0
SYMATTR InstName C59
SYMATTR Value {Ci}
SYMATTR SpiceLine Lser=200p
SYMBOL res -4096 4112 R0
SYMATTR InstName R84
SYMATTR Value 4m
SYMBOL cap -3984 4240 R0
SYMATTR InstName C60
SYMATTR Value {Ci}
SYMATTR SpiceLine Lser=200p
SYMBOL res -3984 4112 R0
SYMATTR InstName R85
SYMATTR Value 4m
SYMBOL cap -3888 4240 R0
SYMATTR InstName C61
SYMATTR Value {Ci}
SYMATTR SpiceLine Lser=200p
SYMBOL res -3888 4112 R0
SYMATTR InstName R86
SYMATTR Value 4m
SYMBOL cap -3776 4240 R0
SYMATTR InstName C62
SYMATTR Value {Ci}
SYMATTR SpiceLine Lser=200p
SYMBOL res -3776 4112 R0
SYMATTR InstName R87
SYMATTR Value 4m
SYMBOL voltage -3296 3824 R0
WINDOW 123 24 120 Left 2
WINDOW 39 0 0 Left 0
SYMATTR Value2 AC 1
SYMATTR InstName V6
SYMATTR Value ""
SYMBOL cap -5104 3744 R0
SYMATTR InstName C63
SYMATTR Value {Ci}
SYMATTR SpiceLine Lser=200p
SYMBOL res -5104 3616 R0
SYMATTR InstName R88
SYMATTR Value 4m
SYMBOL cap -4992 3744 R0
SYMATTR InstName C64
SYMATTR Value {Ci}
SYMATTR SpiceLine Lser=200p
SYMBOL res -4992 3616 R0
SYMATTR InstName R89
SYMATTR Value 4m
SYMBOL cap -5104 2672 R0
SYMATTR InstName C65
SYMATTR Value {Ci}
SYMATTR SpiceLine Lser=200p
SYMBOL res -5104 2544 R0
SYMATTR InstName R90
SYMATTR Value 4m
SYMBOL cap -4992 2672 R0
SYMATTR InstName C66
SYMATTR Value {Ci}
SYMATTR SpiceLine Lser=200p
SYMBOL res -4992 2544 R0
SYMATTR InstName R91
SYMATTR Value 4m
SYMBOL cap -5120 1584 R0
SYMATTR InstName C67
SYMATTR Value {Ci}
SYMATTR SpiceLine Lser=200p
SYMBOL res -5120 1456 R0
SYMATTR InstName R92
SYMATTR Value 4m
SYMBOL cap -5008 1584 R0
SYMATTR InstName C68
SYMATTR Value {Ci}
SYMATTR SpiceLine Lser=200p
SYMBOL res -5008 1456 R0
SYMATTR InstName R93
SYMATTR Value 4m
SYMBOL res -4864 1408 R90
WINDOW 0 0 56 VBottom 2
WINDOW 3 32 56 VTop 2
SYMATTR InstName R94
SYMATTR Value 100µ
SYMBOL res -4848 2496 R90
WINDOW 0 0 56 VBottom 2
WINDOW 3 32 56 VTop 2
SYMATTR InstName R95
SYMATTR Value 100µ
SYMBOL res -4816 3568 R90
WINDOW 0 0 56 VBottom 2
WINDOW 3 32 56 VTop 2
SYMATTR InstName R96
SYMATTR Value 100µ
TEXT 96 -424 Left 2 !.ac dec 100 100 101meg
TEXT -672 -288 Left 2 !.param Zin = {12/I}/{D*D}
TEXT -664 -232 Left 2 !.param I=20\n.param D=0.5
TEXT -1536 640 Left 2 !.param Cd=47u
TEXT -1536 600 Left 2 !.param Rd=0.39
TEXT -1288 648 Left 2 !.param Cf=24u
TEXT -4000 2344 Left 2 !.param Ci=3.3u
RECTANGLE Normal 528 832 -2192 -624 2
RECTANGLE Normal 512 2480 -2208 1024 2
RECTANGLE Normal 512 4144 -2208 2688 2
